Circuit: * C:\Users\thean\OneDrive\Documents\1. Uni Work\HPR\Liaka V3\Simulations\LM393_LVCO\LM393Test.asc

WARNING: Node NC_01 is floating.

WARNING: Less than two connections to node NC_01.  This node is used by V:U1:I1.
WARNING: Less than two connections to node NC_02.  This node is used by V:U1:I2.
WARNING: Less than two connections to node NC_05.  This node is used by Q:U1:5.
Direct Newton iteration failed to find .op point.  (Use ".option noopiter" to skip.)
Starting Gmin stepping
Gmin = 10
Gmin = 1.07374
Gmin = 0.115292
Gmin = 0.0123794
Gmin = 0.00132923
Gmin = 0.000142725
Gmin = 1.5325e-005
Gmin = 1.6455e-006
Gmin = 1.76685e-007
Gmin = 1.89714e-008
Gmin = 2.03704e-009
Gmin = 2.18725e-010
Gmin = 2.34854e-011
Gmin = 2.52173e-012
Gmin = 2.70769e-013
Gmin = 0
Gmin stepping succeeded in finding the operating point.

Changing Tseed to 1e-008
Changing Tseed to 1e-010
Changing Tseed to 1e-007
Heightened Def Con from 1e-007 +++++++++++++++++++++++++++++++++++++++++++++to 1e-007

Date: Sat Mar 19 17:59:51 2022
Total elapsed time: 0.536 seconds.

tnom = 27
temp = 27
method = modified trap
totiter = 18777
traniter = 18161
tranpoints = 6655
accept = 6161
rejected = 537
matrix size = 36
fillins = 21
solver = Normal
Matrix Compiler1: 3.32 KB object code size  0.4/0.3/[0.1]
Matrix Compiler2: off  [0.2]/0.3/0.2

