Circuit: *source LM2903B

Fatal Error: No analysis request found.
