Circuit: **$ENCRYPTED_LIB

Fatal Error: No analysis request found.
