Circuit: * TL071 OPERATIONAL AMPLIFIER "MACROMODEL" SUBCIRCUIT

Fatal Error: No analysis request found.
